-------------------------------------------------------
          Amber 16 PMEMD                              2016
          -------------------------------------------------------

  [-O]verwriting output

File Assignments:

 Here is the input file:

Equilibrating the system for 1 ns with
T = 298 K and P = 1 bar
using Langevin thermostat and Berendsen barostat
&cntrl
  imin   = 0
  ntx    = 1
  irest  = 0
  ntpr   = 1000
  ntwx   = 1000
  ntwe   = 5
  ntwr   = 50000
  nstlim = 500000
  dt     = 0.002
  ntt    = 3
  tempi  = 298
  temp0  = 298
  ig     = 1
  gamma_ln = 1.0
  ntp    = 1
  barostat = 1
  pres0  = 1.0
  taup   = 1.0
  ntc    = 2
  ntf    = 2
  ntb    = 2
  cut    = 8.0
&end
&ewald
  netfrc = 0
&end

--------------------------------------------------------------------------------
   1.  RESOURCE   USE:
--------------------------------------------------------------------------------

 getting box info from netcdf restart file
 NATOM  =    8000 NTYPES =       3 NBONH =    6000 MBONA  =    2000
 NTHETH =       0 MTHETA =       0 NPHIH =       0 MPHIA  =       0
 NHPARM =       0 NPARM  =       0 NNB   =   14000 NRES   =    2000
 NBONA  =    2000 NTHETA =       0 NPHIA =       0 NUMBND =       3
 NUMANG =       0 NPTRA  =       0 NATYP =       3 NPHB   =       0
 IFBOX  =       1 NMXRS  =       4 IFCAP =       0 NEXTRA =    2000
 NCOPY  =       0

     BOX TYPE: RECTILINEAR

--------------------------------------------------------------------------------
   2.  CONTROL  DATA  FOR  THE  RUN
--------------------------------------------------------------------------------

default_name

General flags:
     imin    =       0, nmropt  =       0

Nature and format of input:
     ntx     =       1, irest   =       0, ntrx    =       1

Nature and format of output:
     ntxo    =       2, ntpr    =    1000, ntrx    =       1, ntwr    =   50000
     iwrap   =       0, ntwx    =    1000, ntwv    =       0, ntwe    =       5
     ioutfm  =       1, ntwprt  =       0, idecomp =       0, rbornstat=      0

Potential function:
     ntf     =       2, ntb     =       2, igb     =       0, nsnb    =      25
     ipol    =       0, gbsa    =       0, iesp    =       0
     dielc   =   1.00000, cut     =   8.00000, intdiel =   1.00000

Frozen or restrained atoms:
     ibelly  =       0, ntr     =       0

Molecular dynamics:
     nstlim  =    500000, nscm    =      1000, nrespa  =         1
     t       =   0.00000, dt      =   0.00200, vlimit  =  -1.00000

Langevin dynamics temperature regulation:
     ig      =       1
     temp0   = 298.00000, tempi   = 298.00000, gamma_ln=   1.00000

Pressure regulation:
     ntp     =       1
     pres0   =   1.00000, comp    =  44.60000, taup    =   1.00000

SHAKE:
     ntc     =       2, jfastw  =       0
     tol     =   0.00001

Extra-points options:
     frameon =       1, chngmask=       1

Ewald parameters:
     verbose =       0, ew_type =       0, nbflag  =       1, use_pme =       1
     vdwmeth =       1, eedmeth =       1, netfrc  =       0
     Box X =   39.100   Box Y =   39.100   Box Z =   39.100
     Alpha =   90.000   Beta  =   90.000   Gamma =   90.000
     NFFT1 =   40       NFFT2 =   40       NFFT3 =   40
     Cutoff=    8.000   Tol   =0.100E-04
     Ewald Coefficient =  0.34864
     Interpolation order =    4

--------------------------------------------------------------------------------
   3.  ATOMIC COORDINATES AND VELOCITIES
--------------------------------------------------------------------------------

default_name
 begin time read from input coords =  1000.000 ps

 Number of triangulated 3-point waters found:     2000

     Sum of charges from parm topology file =   0.00001098
     Forcing neutrality...

--------------------------------------------------------------------------------
   4.  RESULTS
 NSTEP =        0   TIME(PS) =       0.000  TEMP(K) =   444.12  PRESS =  -232.3
 Etot   =    -19285.5660  EKtot   =      5295.2685  EPtot      =    -24580.8345
 BOND   =         0.0000  ANGLE   =         0.0000  DIHED      =         0.0000
 1-4 NB =         0.0000  1-4 EEL =         0.0000  VDWAALS    =      3517.3835
 EELEC  =    -28098.2180  EHBOND  =         0.0000  RESTRAINT  =         0.0000
 EKCMT  =      1790.4035  VIRIAL  =      2090.2641  VOLUME     =     59778.1572
                                                    Density    =         1.0009
 ------------------------------------------------------------------------------

      A V E R A G E S   O V E R     500 S T E P S

 NSTEP =   500000   TIME(PS) =    1000.000  TEMP(K) =   298.01  PRESS =    -2.0
 Etot   =    -20999.6261  EKtot   =      3553.1723  EPtot      =    -24552.7984
 BOND   =         0.0000  ANGLE   =         0.0000  DIHED      =         0.0000
 1-4 NB =         0.0000  1-4 EEL =         0.0000  VDWAALS    =      3608.4560
 EELEC  =    -28161.2544  EHBOND  =         0.0000  RESTRAINT  =         0.0000
 EKCMT  =      1787.2760  VIRIAL  =      1789.7404  VOLUME     =     60034.9567
                                                    Density    =         0.9967
 ------------------------------------------------------------------------------

      R M S  F L U C T U A T I O N S

 NSTEP =   500000   TIME(PS) =    1000.000  TEMP(K) =     3.71  PRESS =   220.2
 Etot   =        79.9896  EKtot   =        44.2735  EPtot      =        66.2058
 BOND   =         0.0000  ANGLE   =         0.0000  DIHED      =         0.0000
 1-4 NB =         0.0000  1-4 EEL =         0.0000  VDWAALS    =        70.5283
 EELEC  =       111.3737  EHBOND  =         0.0000  RESTRAINT  =         0.0000
 EKCMT  =        31.3224  VIRIAL  =       287.6734  VOLUME     =       236.0400
                                                    Density    =         0.0039
 ------------------------------------------------------------------------------
