-------------------------------------------------------
          Amber 16 PMEMD                              2016
          -------------------------------------------------------

  [-O]verwriting output

File Assignments:

 Here is the input file:

NVT by setting comp = 0.0
&cntrl
  imin   = 0
  ntx    = 5
  irest  = 1
  ntpr   = 1000
  ntwx   = 1000
  ntwe   = 5
  ntwr   = 50000
  nstlim = 5000000
  dt     = 0.002
  ntt    = 1
  temp0  = 298
  tautp  = 1.0
  ntp    = 1
  barostat = 1
  pres0  = 1.0
  taup   = 1.0
  comp   = 0.0
  ntc    = 2
  ntf    = 2
  ntb    = 2
  cut    = 8.0
&end
&ewald
  netfrc = 0
&end

Note: ig = -1. Setting random seed to   325793 based on wallclock time in
      microseconds.

--------------------------------------------------------------------------------
   1.  RESOURCE   USE:
--------------------------------------------------------------------------------

 getting box info from netcdf restart file
 NATOM  =    8000 NTYPES =       3 NBONH =    6000 MBONA  =    2000
 NTHETH =       0 MTHETA =       0 NPHIH =       0 MPHIA  =       0
 NHPARM =       0 NPARM  =       0 NNB   =   14000 NRES   =    2000
 NBONA  =    2000 NTHETA =       0 NPHIA =       0 NUMBND =       3
 NUMANG =       0 NPTRA  =       0 NATYP =       3 NPHB   =       0
 IFBOX  =       1 NMXRS  =       4 IFCAP =       0 NEXTRA =    2000
 NCOPY  =       0

     BOX TYPE: RECTILINEAR

--------------------------------------------------------------------------------
   2.  CONTROL  DATA  FOR  THE  RUN
--------------------------------------------------------------------------------

default_name

General flags:
     imin    =       0, nmropt  =       0

Nature and format of input:
     ntx     =       5, irest   =       1, ntrx    =       1

Nature and format of output:
     ntxo    =       2, ntpr    =    1000, ntrx    =       1, ntwr    =   50000
     iwrap   =       0, ntwx    =    1000, ntwv    =       0, ntwe    =       5
     ioutfm  =       1, ntwprt  =       0, idecomp =       0, rbornstat=      0

Potential function:
     ntf     =       2, ntb     =       2, igb     =       0, nsnb    =      25
     ipol    =       0, gbsa    =       0, iesp    =       0
     dielc   =   1.00000, cut     =   8.00000, intdiel =   1.00000

Frozen or restrained atoms:
     ibelly  =       0, ntr     =       0

Molecular dynamics:
     nstlim  =   5000000, nscm    =      1000, nrespa  =         1
     t       =   0.00000, dt      =   0.00200, vlimit  =  -1.00000

Berendsen (weak-coupling) temperature regulation:
     temp0   = 298.00000, tempi   =   0.00000, tautp   =   1.00000

Pressure regulation:
     ntp     =       1
     pres0   =   1.00000, comp    =   0.00000, taup    =   1.00000

SHAKE:
     ntc     =       2, jfastw  =       0
     tol     =   0.00001

Extra-points options:
     frameon =       1, chngmask=       1

Ewald parameters:
     verbose =       0, ew_type =       0, nbflag  =       1, use_pme =       1
     vdwmeth =       1, eedmeth =       1, netfrc  =       0
     Box X =   39.261   Box Y =   39.261   Box Z =   39.261
     Alpha =   90.000   Beta  =   90.000   Gamma =   90.000
     NFFT1 =   40       NFFT2 =   40       NFFT3 =   40
     Cutoff=    8.000   Tol   =0.100E-04
     Ewald Coefficient =  0.34864
     Interpolation order =    4

--------------------------------------------------------------------------------
   3.  ATOMIC COORDINATES AND VELOCITIES
--------------------------------------------------------------------------------

default_name
 begin time read from input coords =  1000.000 ps

 Number of triangulated 3-point waters found:     2000

     Sum of charges from parm topology file =   0.00001098
     Forcing neutrality...

--------------------------------------------------------------------------------
   4.  RESULTS
 NSTEP =     1000   TIME(PS) =    1002.000  TEMP(K) =   294.80  PRESS =  -268.9
 Etot   =    -21066.9169  EKtot   =      3514.0879  EPtot      =    -24581.0047
 BOND   =         0.0000  ANGLE   =         0.0000  DIHED      =         0.0000
 1-4 NB =         0.0000  1-4 EEL =         0.0000  VDWAALS    =      3622.8719
 EELEC  =    -28203.8766  EHBOND  =         0.0000  RESTRAINT  =         0.0000
 EKCMT  =      1783.5573  VIRIAL  =      2134.9815  VOLUME     =     60518.8665
                                                    Density    =         0.9887
 ------------------------------------------------------------------------------

      A V E R A G E S   O V E R    5000 S T E P S

 NSTEP =  5000000   TIME(PS) =   11000.000  TEMP(K) =   298.07  PRESS =  -173.7
 Etot   =    -20978.3897  EKtot   =      3553.0440  EPtot      =    -24531.4337
 BOND   =         0.0000  ANGLE   =         0.0000  DIHED      =         0.0000
 1-4 NB =         0.0000  1-4 EEL =         0.0000  VDWAALS    =      3603.5892
 EELEC  =    -28135.0229  EHBOND  =         0.0000  RESTRAINT  =         0.0000
 EKCMT  =      1788.4059  VIRIAL  =      2015.4352  VOLUME     =     60518.8665
                                                    Density    =         0.9887
 ------------------------------------------------------------------------------

      R M S  F L U C T U A T I O N S

 NSTEP =  5000000   TIME(PS) =   11000.000  TEMP(K) =     3.16  PRESS =   290.6
 Etot   =        23.3552  EKtot   =        37.6216  EPtot      =        44.3093
 BOND   =         0.0000  ANGLE   =         0.0000  DIHED      =         0.0000
 1-4 NB =         0.0000  1-4 EEL =         0.0000  VDWAALS    =        80.7691
 EELEC  =       100.9118  EHBOND  =         0.0000  RESTRAINT  =         0.0000
 EKCMT  =        30.2532  VIRIAL  =       379.7609  VOLUME     =         0.0000
                                                    Density    =         0.0000
 ------------------------------------------------------------------------------
